FoamFile
{
    version     2.0;
    format      ascii;
    class       dictionary;
    location    "system";
    object      topoSetDict;
}

actions
(
 {
   name    inoculum;
   type    cellSet;
   action  new;
   source  labelToCell;
   value
     (
      32358
      32634
      32288
      32346
      32539
      32412
      32257
      32297
      32743
      32448
      32665
      32761
      32688
      32277
      32649
      32525
      32478
      32735
      32652
      32651
      32291
      32646
      32304
      32330
      32672
      32424
      32390
      32592
      32282
      32553
      32578
      32588
      );
 }
 );
