/*--------------------------------*- C++ -*----------------------------------*\
| =========                 |                                                 |
| \\      /  F ield         | OpenFOAM: The Open Source CFD Toolbox           |
|  \\    /   O peration     | Version:  v2006                                 |
|   \\  /    A nd           | Website:  www.openfoam.com                      |
|    \\/     M anipulation  |                                                 |
\*---------------------------------------------------------------------------*/
FoamFile
{
    version     2.0;
    format      ascii;
    class       dictionary;
    object      blockMeshDict;
}
// * * * * * * * * * * * * * * * * * * * * * * * * * * * * * * * * * * * * * //

convertToMeters 1.6e-6;

vertices
(
 (0   0   0)
 (64  0   0)
 (64  1   0)
 (0   1   0)
 //
 (0   0   1)
 (64  0   1)
 (64  1   1)
 (0   1   1)
 );

blocks
(
 hex (0 1 2 3 4 5 6 7) (64 1 1) simpleGrading (1 1 1)
 );

edges
(
);

boundary
(

 top
 {
   type empty;
   faces
     (
      (3 2 6 7)
      );
 }
 left
 {
   type patch;
   faces
     (
      (0 4 7 3)
      );
 }
 right
 {
   type patch;
   faces
     (
      (1 5 6 2)
      );
 }
 bottom
 {
   type empty;
   faces
     (
      (0 1 5 4)
      );
 }
 defaultFaces
 {
   type empty;
   faces
     (
      (0 1 2 3)
      (4 5 6 7)
      );
 }
  
 );

mergePatchPairs
(
);

// ************************************************************************* //
