/*--------------------------------*- C++ -*----------------------------------*\
| =========                 |                                                 |
| \\      /  F ield         | OpenFOAM: The Open Source CFD Toolbox           |
|  \\    /   O peration     | Version:  v2006                                 |
|   \\  /    A nd           | Website:  www.openfoam.com                      |
|    \\/     M anipulation  |                                                 |
\*---------------------------------------------------------------------------*/
FoamFile
{
    version     2.0;
    format      ascii;
    class       dictionary;
    location    "system";
    object      setFieldsDict;
}
// * * * * * * * * * * * * * * * * * * * * * * * * * * * * * * * * * * * * * //

defaultFieldValues ( volScalarFieldValue M 0 );

regions
(

 boxToCell {
   box (4.48e-05 -100 -100) (4.8e-05 100 100);
   fieldValues ( volScalarFieldValue M 0.8 );
 }

 boxToCell {
   box (5.44e-05 -100 -100) (5.76e-05 100 100);
   fieldValues ( volScalarFieldValue M 0.8 );
 }
 
 );

// ************************************************************************* //
