/*--------------------------------*- C++ -*----------------------------------*\
| =========                 |                                                 |
| \\      /  F ield         | OpenFOAM: The Open Source CFD Toolbox           |
|  \\    /   O peration     | Version:  v2006                                 |
|   \\  /    A nd           | Website:  www.openfoam.com                      |
|    \\/     M anipulation  |                                                 |
\*---------------------------------------------------------------------------*/
FoamFile
{
    version     2.0;
    format      ascii;
    class       dictionary;
    object      blockMeshDict;
}
// * * * * * * * * * * * * * * * * * * * * * * * * * * * * * * * * * * * * * //

convertToMeters 1.89e-6;

vertices
(
 (0    0   0)
 (128  0   0)
 (128  64  0)
 (0    64  0)
 //
 (0    0   64)
 (128  0   64)
 (128  64  64)
 (0    64  64)
 );

blocks
(
 hex (0 1 2 3 4 5 6 7) (128 64 64) simpleGrading (1 1 1)
 );

edges
(
);

boundary
(

 y1
 {
   type patch;
   faces
     (
      (3 2 6 7)
      );
 }
 x0
 {
   type patch;
   faces
     (
      (0 4 7 3)
      );
 }
 x1
 {
   type patch;
   faces
     (
      (1 5 6 2)
      );
 }
 y0
 {
   type patch;
   faces
     (
      (0 1 5 4)
      );
 }
 z1
 {
   type patch;
   faces
     (
      (4 5 6 7)
      );
 }
 z0
 {
   type patch;
   faces
     (
      (0 1 2 3)
      );
 }
 
 );

mergePatchPairs
(
);

// ************************************************************************* //
