/*--------------------------------*- C++ -*----------------------------------*\
| =========                 |                                                 |
| \\      /  F ield         | OpenFOAM: The Open Source CFD Toolbox           |
|  \\    /   O peration     | Version:  v2006                                 |
|   \\  /    A nd           | Website:  www.openfoam.com                      |
|    \\/     M anipulation  |                                                 |
\*---------------------------------------------------------------------------*/
FoamFile
{
    version     2.0;
    format      ascii;
    class       dictionary;
    location    "system";
    object      sampleDict;
}
// * * * * * * * * * * * * * * * * * * * * * * * * * * * * * * * * * * * * * //

type sets;

libs ("libsampling.so");

setFormat raw;

interpolationScheme cellPointFace;

fields
(
 C
 M
 );

sets
(

 line
 {
   type  midPoint;
   axis  x;
   start (0 8e-7 8e-7);
   end   (1024e-7 8e-7 8e-7);
 }

 );


// ************************************************************************* //
